Version 4.1
SHEET 1 2248 708
WIRE 976 32 880 32
WIRE 224 48 48 48
WIRE 304 48 224 48
WIRE 448 48 384 48
WIRE 224 64 224 48
WIRE 48 80 48 48
WIRE 880 112 880 32
WIRE 448 128 448 48
WIRE 144 160 48 160
WIRE 48 192 48 160
WIRE 224 208 224 192
WIRE 880 224 880 192
WIRE 448 272 448 208
WIRE 48 304 48 272
WIRE 224 304 224 288
WIRE 448 544 416 544
WIRE 592 544 528 544
WIRE 416 640 416 544
WIRE 592 640 592 624
WIRE 592 640 416 640
WIRE 592 656 592 640
FLAG 448 272 0
FLAG 224 304 0
FLAG 880 224 0
FLAG 976 32 int
FLAG 592 656 0
FLAG 48 304 0
FLAG 224 48 Vds
SYMBOL IPx6xx_L1 144 160 R0
SYMATTR InstName U1
SYMBOL voltage 448 224 R180
WINDOW 123 0 0 Left 0
WINDOW 39 0 0 Left 0
WINDOW 3 -246 -119 Left 2
SYMATTR Value PULSE(0 {vDS} 10u 60n 35n 100u 200u)
SYMATTR InstName vDS
SYMBOL res 400 32 R90
WINDOW 0 0 56 VBottom 2
WINDOW 3 32 56 VTop 2
SYMATTR InstName RL
SYMATTR Value {RL}
SYMBOL bv 880 96 R0
SYMATTR InstName B1
SYMATTR Value V=idt(  (  (time > 100.060u & time < 111.8u) | (time > 210u & time < 210.07u)  )* I(RL)*V(Vds)  )
SYMBOL res 32 176 R0
SYMATTR InstName R3
SYMATTR Value 1
SYMBOL current 592 544 R0
WINDOW 123 0 0 Left 0
WINDOW 39 0 0 Left 0
SYMATTR InstName I1
SYMATTR Value {iDS}
SYMBOL res 544 528 R90
WINDOW 0 0 56 VBottom 2
WINDOW 3 32 56 VTop 2
SYMATTR InstName R4
SYMATTR Value 1
SYMBOL res 32 64 R0
SYMATTR InstName R1
SYMATTR Value 1Meg
SYMBOL res 208 192 R0
SYMATTR InstName R2
SYMATTR Value 1n
TEXT 240 -24 Left 2 !.param RL=vDS/iDS
TEXT 1872 360 Left 2 !.param vDS=10
TEXT 1880 400 Left 2 !.param iDS=25
TEXT -120 256 Left 2 ;.op
TEXT 1864 480 Left 2 !.step dec param vDS 0.1 601 25
TEXT 1856 520 Left 2 !.step dec param iDS 0.1 500 10
TEXT -128 192 Left 2 !.tran 250u
TEXT 1008 336 Left 2 !.meas TRAN V1 FIND V(int) AT 209u\n.meas TRAN V2 FIND V(int) AT 211u\n.meas TRAN V3 FIND V(int) AT 100u\n.meas TRAN V4 FIND V(int) AT 112u\n.meas TRAN EON PARAM (V2-V1)*1A*1s\n.meas TRAN EOFF PARAM (V4-V3)*1A*1s\n.meas TRAN VDS FIND V(N001) AT 60u\n.meas TRAN IDS FIND I(I1) AT 60u\n.meas TRAN VDSREAL FIND V(Vds) AT 60u\n.meas TRAN IDSREAL FIND I(RL) AT 60u\n.meas TRAN RDSON PARAM (abs(VDSREAL)/abs(IDSREAL))
TEXT -112 352 Left 2 !.temp 25
