Version 4.1
SHEET 1 2248 708
WIRE 976 32 880 32
WIRE 224 48 96 48
WIRE 304 48 224 48
WIRE 448 48 384 48
WIRE 224 64 224 48
WIRE 448 80 448 48
WIRE 880 112 880 32
WIRE 224 208 224 192
WIRE 224 208 192 208
WIRE 192 224 192 208
WIRE 192 224 176 224
WIRE 224 224 224 208
WIRE 880 224 880 192
WIRE 96 256 96 128
WIRE 144 256 144 240
WIRE 144 256 96 256
WIRE 176 256 176 224
WIRE 176 256 144 256
WIRE 96 336 96 256
WIRE 224 336 224 304
WIRE 96 448 96 416
WIRE 448 544 416 544
WIRE 592 544 528 544
WIRE 416 640 416 544
WIRE 592 640 592 624
WIRE 592 640 416 640
WIRE 592 656 592 640
FLAG 448 80 0
FLAG 224 336 0
FLAG 880 224 0
FLAG 976 32 int
FLAG 96 448 0
FLAG 592 656 0
SYMBOL IPx6xx_L1 144 160 R0
SYMATTR InstName U1
SYMBOL voltage 224 208 R0
WINDOW 123 0 0 Left 0
WINDOW 39 0 0 Left 0
SYMATTR InstName vDS
SYMATTR Value PULSE(0 {vDS} 100u 60n 35n 100m 200m)
SYMBOL res 400 32 R90
WINDOW 0 0 56 VBottom 2
WINDOW 3 32 56 VTop 2
SYMATTR InstName RL
SYMATTR Value {RL}
SYMBOL bv 880 96 R0
SYMATTR InstName B1
SYMATTR Value V=idt(  (  (time > 100.0998m & time < 100.1020m) | (time > 200.09m & time < 200.1001m)  )* I(RL)*V(n002)  )
SYMBOL res 80 320 R0
SYMATTR InstName R1
SYMATTR Value 1Meg
SYMBOL res 80 32 R0
SYMATTR InstName R2
SYMATTR Value 1Meg
SYMBOL res 128 144 R0
SYMATTR InstName R3
SYMATTR Value 1
SYMBOL current 592 544 R0
WINDOW 123 0 0 Left 0
WINDOW 39 0 0 Left 0
SYMATTR InstName I1
SYMATTR Value {iDS}
SYMBOL res 544 528 R90
WINDOW 0 0 56 VBottom 2
WINDOW 3 32 56 VTop 2
SYMATTR InstName R4
SYMATTR Value 1
TEXT 312 192 Left 2 ;.dc dec V1 0.1 600 25
TEXT 240 -24 Left 2 !.param RL=vDS/iDS
TEXT 400 232 Left 2 !.param vDS=10
TEXT 408 272 Left 2 !.param iDS=1
TEXT -120 256 Left 2 ;.op
TEXT 392 352 Left 2 !.step dec param vDS 0.1 601 25
TEXT 384 392 Left 2 !.step dec param iDS 0.1 500 10
TEXT -128 192 Left 2 !.tran 250m
TEXT 1008 336 Left 2 !.meas TRAN V1 FIND V(int) AT 100m\n.meas TRAN V2 FIND V(int) AT 100.2m\n.meas TRAN V3 FIND V(int) AT 200m\n.meas TRAN V4 FIND V(int) AT 200.2m\n.meas TRAN EON PARAM (V2-V1)*1A*1s\n.meas TRAN EOFF PARAM (V4-V3)*1A*1s\n.meas TRAN VDS FIND V(N002) AT 50m\n.meas TRAN IDS FIND I(I1) AT 50m\n.meas TRAN V5 FIND V(N001) AT 50m\n.meas TRAN V6 FIND V(N002) AT 50m\n.meas TRAN VDSREAL PARAM (V6-V5)\n.meas TRAN IDSREAL FIND I(RL) AT 50m\n.meas TRAN RDSON PARAM (VDSREAL/IDSREAL)
