Version 4.1
SHEET 1 936 680
WIRE 288 -48 176 -48
WIRE 176 48 176 32
WIRE 176 48 96 48
WIRE 176 80 176 48
WIRE 176 96 176 80
WIRE 96 192 96 48
WIRE 176 256 176 224
WIRE 368 256 368 192
WIRE -32 304 -32 272
FLAG 176 256 0
FLAG 176 80 Vds
FLAG -32 304 0
FLAG 368 256 0
FLAG 288 -48 0
SYMBOL EPCGaN 96 192 R0
SYMATTR InstName U1
SYMATTR Value EPC2304
SYMBOL voltage 368 208 R180
WINDOW 123 24 124 Left 2
WINDOW 39 24 152 Left 2
SYMATTR InstName Vds
SYMATTR Value 6
SYMBOL voltage -32 176 R0
WINDOW 123 24 124 Left 2
WINDOW 39 24 152 Left 2
SYMATTR InstName Vgs
SYMATTR Value 5
SYMBOL current 176 -48 R0
WINDOW 123 0 0 Left 0
WINDOW 39 0 0 Left 0
SYMATTR InstName I1
SYMATTR Value 9m
TEXT 160 328 Left 2 ;.dc Vds 0 5 0.01
TEXT 512 160 Left 2 ;.temp 25
TEXT 512 104 Left 2 !.step temp 0 150 0.1
TEXT 512 64 Left 2 !.op
TEXT 512 240 Left 2 ;.ac lin 1 1Meg 1Meg
