Version 4.1
SHEET 1 1060 680
WIRE 368 -64 176 -64
WIRE 176 -32 176 -64
WIRE 176 -32 112 -32
WIRE 112 48 112 32
WIRE 176 48 112 48
WIRE 176 80 176 48
WIRE 368 80 368 -64
WIRE 176 96 176 80
WIRE 80 192 48 192
WIRE 96 192 80 192
WIRE 176 256 176 224
WIRE 368 256 368 160
WIRE -32 272 -32 192
FLAG 176 256 0
FLAG 176 80 Vds
FLAG 80 192 Vgs
FLAG 368 256 0
FLAG -32 272 0
FLAG 80 272 0
SYMBOL EPCGaN 96 192 R0
SYMATTR InstName U1
SYMBOL voltage 368 64 R0
WINDOW 123 0 0 Left 0
WINDOW 39 0 0 Left 0
SYMATTR InstName Vds
SYMATTR Value 100
SYMBOL current 176 -32 R0
WINDOW 123 0 0 Left 0
WINDOW 39 0 0 Left 0
SYMATTR InstName I1
SYMATTR Value 30
SYMBOL diode 128 32 R180
WINDOW 0 24 64 Left 2
WINDOW 3 24 0 Left 2
SYMATTR InstName D1
SYMBOL res 64 176 R0
SYMATTR InstName R1
SYMATTR Value 47k
SYMBOL current -32 192 R270
WINDOW 0 32 40 VTop 2
WINDOW 3 73 -8 Bottom 2
WINDOW 123 0 0 Left 0
WINDOW 39 0 0 Left 0
SYMATTR InstName Igs
SYMATTR Value PULSE(0 1 1n 1f 1f 100n 200n 1)
TEXT 512 280 Left 2 ;.dc Vds 0 6 0.01 Vgs list 2 3 4 5
TEXT 512 160 Left 2 !.temp 25
TEXT 512 304 Left 2 ;.step temp 0 150 0.1
TEXT 512 64 Left 2 ;.op
TEXT 512 240 Left 2 ;.ac lin 1 1Meg 1Meg
TEXT 512 96 Left 2 !.tran 25n
