Version 4.1
SHEET 1 936 680
WIRE 368 32 176 32
WIRE 176 80 176 32
WIRE 176 96 176 80
WIRE 368 112 368 32
WIRE 96 192 -32 192
WIRE 176 256 176 224
WIRE 368 256 368 192
WIRE -32 304 -32 272
FLAG 176 256 0
FLAG 176 80 Vds
FLAG -32 304 0
FLAG 368 256 0
SYMBOL EPCGaN 96 192 R0
SYMATTR InstName U1
SYMATTR Value EPC2304
SYMBOL voltage 368 96 R0
WINDOW 123 24 124 Left 2
WINDOW 39 24 152 Left 2
SYMATTR InstName Vds
SYMATTR Value 100
SYMATTR Value2 AC 1
SYMATTR SpiceLine Rser=3.5m
SYMBOL voltage -32 176 R0
WINDOW 123 24 124 Left 2
WINDOW 39 24 152 Left 2
SYMATTR InstName Vgs
SYMATTR Value 0
SYMATTR Value2 AC 1
SYMATTR SpiceLine Rser=0.4
TEXT 512 208 Left 2 ;.dc Vds 0 5 0.01
TEXT 512 160 Left 2 !.temp 25
TEXT 512 104 Left 2 !.step param Vds 0 200 1
TEXT 512 64 Left 2 ;.op
TEXT 512 240 Left 2 !.ac lin 1 1Meg 1Meg
