Version 4.1
SHEET 1 1060 680
WIRE 176 -64 112 -64
WIRE 368 -64 176 -64
WIRE 112 -48 112 -64
WIRE 176 -48 176 -64
WIRE 112 48 112 16
WIRE 176 48 176 32
WIRE 176 48 112 48
WIRE 176 80 176 48
WIRE 176 96 176 80
WIRE 368 112 368 -64
WIRE 64 192 48 192
WIRE 80 192 64 192
WIRE 96 192 80 192
WIRE 176 256 176 224
WIRE 368 256 368 192
WIRE -32 272 -32 192
FLAG 176 256 0
FLAG 176 80 Vds
FLAG 80 192 Vgs
FLAG 368 256 0
FLAG -32 272 0
FLAG 64 272 0
SYMBOL EPCGaN 96 192 R0
SYMATTR InstName U1
SYMATTR Value EPC2304
SYMBOL voltage 368 96 R0
WINDOW 123 24 124 Left 2
WINDOW 39 24 152 Left 2
SYMATTR InstName Vds
SYMATTR Value 100
SYMBOL voltage 992 96 R0
WINDOW 123 24 124 Left 2
WINDOW 39 24 152 Left 2
SYMATTR InstName Vgs
SYMATTR Value 5
SYMBOL current -32 192 R270
WINDOW 123 0 0 Left 0
WINDOW 39 0 0 Left 0
WINDOW 3 -47 -28 Left 2
SYMATTR InstName Igs
SYMATTR Value PULSE(0 1 1n 1f 1f 100n 200n 1)
SYMBOL res 48 176 R0
SYMATTR InstName R1
SYMATTR Value 47k
SYMBOL current 176 -48 R0
SYMATTR InstName I1
SYMATTR Value 30
SYMBOL diode 128 16 R180
WINDOW 0 24 64 Left 2
WINDOW 3 24 0 Left 2
SYMATTR InstName D1
TEXT 512 280 Left 2 ;.dc Vds 0 5 0.01
TEXT 512 160 Left 2 !.temp 25
TEXT 512 304 Left 2 ;.step temp 0 150 0.1
TEXT 512 64 Left 2 ;.op
TEXT 512 240 Left 2 ;.ac lin 1 1Meg 1Meg
TEXT 512 96 Left 2 !.tran 50n
