Version 4.1
SHEET 1 880 680
WIRE 384 -48 144 -48
WIRE 144 0 144 -48
WIRE 144 96 144 80
WIRE 384 112 384 -48
WIRE -64 192 -128 192
WIRE 64 192 16 192
WIRE -128 272 -128 192
WIRE 384 272 384 192
WIRE 144 288 144 224
FLAG 144 288 0
FLAG 384 272 0
FLAG -128 272 0
SYMBOL IPx6xx_L1 64 192 R0
SYMATTR InstName U1
SYMBOL voltage 384 96 R0
SYMATTR InstName Vds
SYMATTR Value 120
SYMBOL current -64 192 R270
WINDOW 0 32 40 VTop 2
WINDOW 3 24 -96 Bottom 2
WINDOW 123 0 0 Left 0
WINDOW 39 0 0 Left 0
SYMATTR InstName Ig
SYMATTR Value PULSE(0 1 1n 10f 10f 600n 1.2u 1)
SYMBOL res 128 -16 R0
SYMATTR InstName R1
SYMATTR Value 2
TEXT 136 344 Left 2 !.tran 300n
