Version 4.1
SHEET 1 880 680
WIRE -448 -240 -608 -240
WIRE 16 -240 -144 -240
WIRE 128 -240 16 -240
WIRE -608 -208 -608 -240
WIRE 16 -208 16 -240
WIRE 128 -208 128 -240
WIRE -448 -192 -448 -240
WIRE -144 -192 -144 -240
WIRE 16 -128 16 -144
WIRE 128 -112 128 -144
WIRE -608 -96 -608 -128
WIRE -448 -96 -448 -128
WIRE -448 -96 -608 -96
WIRE -448 -80 -448 -96
WIRE -144 -80 -144 -112
WIRE -336 96 -608 96
WIRE 304 96 16 96
WIRE -608 224 -608 176
WIRE -448 224 -608 224
WIRE -336 224 -336 192
WIRE -336 224 -448 224
WIRE 16 256 16 176
WIRE 176 256 16 256
WIRE 304 256 304 160
WIRE 304 256 176 256
WIRE -448 272 -448 224
WIRE 176 288 176 256
FLAG 176 288 0
FLAG -448 272 0
FLAG -448 -80 0
FLAG 16 -128 0
FLAG -144 -80 0
FLAG 128 -112 0
SYMBOL voltage 16 80 R0
WINDOW 123 24 124 Left 2
WINDOW 39 0 0 Left 0
SYMATTR InstName V2
SYMATTR Value 1
SYMATTR Value2 AC 1 0
SYMBOL FL2 304 128 R90
SYMATTR InstName CF2
SYMBOL FL1 -336 144 R90
SYMATTR InstName CF1
SYMBOL HF_decoup -448 -160 R90
SYMATTR InstName HF_group
SYMBOL voltage -608 80 R0
WINDOW 123 24 124 Left 2
WINDOW 39 0 0 Left 0
SYMATTR InstName V1
SYMATTR Value 1
SYMATTR Value2 AC 1 0
SYMBOL voltage -608 -224 R0
WINDOW 123 24 44 Left 2
WINDOW 39 0 0 Left 0
SYMATTR InstName V3
SYMATTR Value 1
SYMATTR Value2 AC 1 0
SYMBOL cap 0 -208 R0
SYMATTR InstName HF
SYMATTR Value 100n
SYMATTR SpiceLine V=450 Rser=0.0242 Lser=0.75n Rpar=5G
SYMBOL voltage -144 -208 R0
WINDOW 123 24 44 Left 2
WINDOW 39 0 0 Left 0
SYMATTR InstName V4
SYMATTR Value 1
SYMATTR Value2 AC 1 0
SYMBOL cap 112 -208 R0
SYMATTR InstName FL
SYMATTR Value 2.2”
SYMATTR SpiceLine V=450 Rser=0.0043 Lser=0.65n Rpar=0.227G
TEXT -232 56 Left 2 !.ac dec 100 1k 1G
TEXT -312 184 Left 2 ;x18 FL caps
TEXT 336 176 Left 2 ;x10 FL caps
TEXT -408 -120 Left 2 ;x4 HF + 1 FL
