Version 4.1
SHEET 1 4276 1012
WIRE 352 0 96 0
WIRE 448 0 352 0
WIRE 528 0 448 0
WIRE 832 0 528 0
WIRE 1232 0 832 0
WIRE 448 64 352 64
WIRE 528 64 448 64
WIRE 640 64 528 64
WIRE 640 80 640 64
WIRE 96 144 96 128
WIRE 528 144 96 144
WIRE 640 144 528 144
WIRE 96 288 96 272
WIRE 208 288 96 288
WIRE 320 288 208 288
WIRE 640 368 640 144
WIRE 832 368 832 0
WIRE 208 384 208 288
WIRE 320 384 320 288
WIRE 528 384 528 144
WIRE 1232 400 1232 128
WIRE 1792 400 1232 400
WIRE -336 416 -608 416
WIRE 96 416 -256 416
WIRE 96 432 96 416
WIRE -608 464 -608 416
WIRE 208 560 208 448
WIRE 208 560 96 560
WIRE 320 560 320 448
WIRE 320 560 208 560
WIRE 96 576 96 560
WIRE 528 704 528 448
WIRE 528 704 96 704
WIRE 640 704 640 464
WIRE 640 704 528 704
WIRE 1232 704 1232 400
WIRE 96 720 96 704
WIRE 1232 848 1232 832
WIRE 96 864 96 848
WIRE -608 992 -608 544
WIRE 832 992 832 464
WIRE 832 992 -608 992
WIRE 1792 992 1792 400
WIRE 1792 992 832 992
FLAG 96 864 0
FLAG 1232 848 0
FLAG 640 80 0
SYMBOL EPCGaN 16 96 R0
SYMATTR InstName U1
SYMBOL EPCGaN 16 240 R0
SYMATTR InstName U2
SYMBOL EPCGaN 16 384 R0
SYMATTR InstName U3
SYMBOL EPCGaN 16 528 R0
SYMATTR InstName U4
SYMBOL EPCGaN 16 672 R0
SYMATTR InstName U5
SYMBOL EPCGaN 16 816 R0
SYMATTR InstName U6
SYMBOL IPx6xx_L1 1152 800 R0
SYMATTR InstName U7
SYMBOL IPx6xx_L1 1152 96 R0
SYMATTR InstName U8
SYMBOL voltage -608 448 R0
WINDOW 123 0 0 Left 0
WINDOW 39 0 0 Left 0
SYMATTR InstName VAC
SYMATTR Value SINE(0 325 50)
SYMBOL ind -352 432 R270
WINDOW 0 32 56 VTop 2
WINDOW 3 5 56 VBottom 2
SYMATTR InstName L1
SYMATTR Value 13µ
SYMATTR SpiceLine Rser=1m
SYMBOL HF_decoup 208 416 R90
SYMATTR InstName X1
SYMBOL FL2 320 416 R90
SYMATTR InstName X2
SYMBOL HF_decoup 352 32 R90
SYMATTR InstName X3
SYMBOL cap 432 0 R0
SYMATTR InstName C1
SYMATTR Value 100n
SYMATTR SpiceLine V=450 Rser=0.0242 Lser=0.75n Rpar=5Giga
SYMBOL cap 512 0 R0
SYMATTR InstName C2
SYMATTR Value 100n
SYMATTR SpiceLine V=450 Rser=0.0242 Lser=0.75n Rpar=5Giga
SYMBOL HF_decoup 528 416 R90
SYMATTR InstName X4
SYMBOL FL1 640 416 R90
SYMATTR InstName X5
SYMBOL Bulk_cap 832 416 R90
SYMATTR InstName X6
TEXT 600 -112 Left 2 !.tran 200u
