Version 4.1
SHEET 1 4276 1580
WIRE 352 0 96 0
WIRE 448 0 352 0
WIRE 528 0 448 0
WIRE 832 0 528 0
WIRE 1232 0 832 0
WIRE 448 64 352 64
WIRE 528 64 448 64
WIRE 640 64 528 64
WIRE 640 80 640 64
WIRE 96 144 96 128
WIRE 528 144 96 144
WIRE 640 144 528 144
WIRE 96 288 96 272
WIRE 208 288 96 288
WIRE 320 288 208 288
WIRE 640 368 640 144
WIRE 832 368 832 0
WIRE 208 384 208 288
WIRE 320 384 320 288
WIRE 528 384 528 144
WIRE 1232 400 1232 128
WIRE 1792 400 1232 400
WIRE -336 416 -608 416
WIRE -192 416 -256 416
WIRE 96 416 -112 416
WIRE 96 432 96 416
WIRE -608 464 -608 416
WIRE 208 560 208 448
WIRE 208 560 96 560
WIRE 320 560 320 448
WIRE 320 560 208 560
WIRE 96 576 96 560
WIRE 528 704 528 448
WIRE 528 704 96 704
WIRE 640 704 640 464
WIRE 640 704 528 704
WIRE 1232 704 1232 400
WIRE 96 720 96 704
WIRE 832 848 832 464
WIRE 1232 848 1232 832
WIRE 96 864 96 848
WIRE -608 992 -608 544
WIRE -320 992 -608 992
WIRE 1792 992 1792 400
WIRE 1792 992 -224 992
WIRE -272 1072 -272 1024
WIRE -272 1072 -416 1072
WIRE -1632 1376 -2048 1376
WIRE -1184 1376 -1520 1376
WIRE -2048 1440 -2048 1376
WIRE -1632 1440 -2048 1440
WIRE -1184 1440 -1184 1376
WIRE -1184 1440 -1520 1440
WIRE -1632 1488 -1808 1488
WIRE -1184 1488 -1184 1440
WIRE -2048 1552 -2048 1440
FLAG 96 864 0
FLAG 1232 848 0
FLAG 640 80 0
FLAG 832 848 0
FLAG -416 1072 I_AC_FB
FLAG -1808 1488 I_AC_FB
FLAG -1184 1488 0
FLAG -2048 1552 0
SYMBOL EPCGaN 16 96 R0
SYMATTR InstName U1
SYMBOL EPCGaN 16 240 R0
SYMATTR InstName U2
SYMBOL EPCGaN 16 384 R0
SYMATTR InstName U3
SYMBOL EPCGaN 16 528 R0
SYMATTR InstName U4
SYMBOL EPCGaN 16 672 R0
SYMATTR InstName U5
SYMBOL EPCGaN 16 816 R0
SYMATTR InstName U6
SYMBOL IPx6xx_L1 1152 800 R0
SYMATTR InstName U7
SYMBOL IPx6xx_L1 1152 96 R0
SYMATTR InstName U8
SYMBOL voltage -608 448 R0
WINDOW 123 0 0 Left 0
WINDOW 39 0 0 Left 0
SYMATTR InstName VAC
SYMATTR Value SINE(0 325 50)
SYMBOL ind -352 432 R270
WINDOW 0 32 56 VTop 2
WINDOW 3 5 56 VBottom 2
SYMATTR InstName L1
SYMATTR Value 7.5Á
SYMATTR SpiceLine Ipk=96 Rser=2.11m Rpar=3.209k Cpar=4p
SYMBOL HF_decoup 208 416 R90
SYMATTR InstName X1
SYMBOL FL2 320 416 R90
SYMATTR InstName X2
SYMBOL HF_decoup 352 32 R90
SYMATTR InstName X3
SYMBOL cap 432 0 R0
SYMATTR InstName C1
SYMATTR Value 100n
SYMATTR SpiceLine V=450 Rser=0.0242 Lser=0.75n Rpar=5Giga
SYMBOL cap 512 0 R0
SYMATTR InstName C2
SYMATTR Value 100n
SYMATTR SpiceLine V=450 Rser=0.0242 Lser=0.75n Rpar=5Giga
SYMBOL HF_decoup 528 416 R90
SYMATTR InstName X4
SYMBOL FL1 640 416 R90
SYMATTR InstName X5
SYMBOL Bulk_cap 832 416 R90
SYMATTR InstName X6
SYMBOL I-V -288 992 M0
SYMATTR InstName U9
SYMBOL ind -208 432 R270
WINDOW 0 32 56 VTop 2
WINDOW 3 5 56 VBottom 2
SYMATTR InstName L2
SYMATTR Value 6.2Á
SYMATTR SpiceLine Ipk=74 Rser=1.05m Rpar=1.5k Cpar=6.5p
SYMBOL PWM-PFC-DBL-LHC -1584 1472 R0
SYMATTR InstName U10
SYMATTR SpiceLine fps=50 fsw=150k phase=0 td1=100n td2=100n tr1=6.5n tf1=3.2n tr2=6.5n tf2=3.2n
SYMATTR SpiceLine2 Vg_H=5 Vg_L=0 Rso1=0 Rsi1=0 Rso2=0 Rsi2=0 f02=5k GA=5k Vref=0.5
TEXT -800 1304 Left 2 !.tran 20m
