Version 4.1
SHEET 1 880 680
WIRE 64 -320 -224 -320
WIRE -224 -288 -224 -320
WIRE 64 -288 64 -320
WIRE 112 -288 64 -288
WIRE 560 -288 208 -288
WIRE 112 -240 64 -240
WIRE 560 -240 560 -288
WIRE 560 -240 208 -240
WIRE 560 -192 560 -240
WIRE -224 -176 -224 -208
WIRE 64 -176 64 -240
WIRE 64 -176 -224 -176
WIRE -224 -64 -224 -96
WIRE 144 128 96 128
WIRE 592 128 240 128
WIRE 96 160 96 128
WIRE 96 160 -160 160
WIRE 96 176 96 160
WIRE 144 176 96 176
WIRE 592 176 592 128
WIRE 592 176 240 176
WIRE -160 208 -160 160
WIRE 592 224 592 176
WIRE -160 320 -160 288
FLAG -160 320 0
FLAG 592 224 0
FLAG -224 -64 0
FLAG 560 -192 0
SYMBOL CMBNC_XL_7448052502_2m5 192 144 R0
SYMATTR InstName U1
SYMBOL voltage -160 192 R0
WINDOW 123 24 124 Left 2
WINDOW 39 0 0 Left 0
SYMATTR InstName V1
SYMATTR Value ""
SYMATTR Value2 AC 1 0
SYMBOL CMBNC_XL_7448052502_2m5 160 -272 R0
SYMATTR InstName U2
SYMBOL voltage -224 -304 R0
WINDOW 123 24 124 Left 2
WINDOW 39 0 0 Left 0
SYMATTR InstName V2
SYMATTR Value ""
SYMATTR Value2 AC 1 0
SYMBOL res -240 -192 R0
SYMATTR InstName R1
SYMATTR Value 1Meg
TEXT -160 48 Left 2 !.ac dec 10 1k 1G
